[Config conf1]
description = "Brez izgubna konfiguracija."
network = Omrezje
sim-time-limit = 1800 s
record-eventlog = true
**.scalar-recording = true
output-scalar-file = ${resultdir}/${configname}/${runnumber}.sca
**.vector-recording = true
output-vector-file = ${resultdir}/${configname}/${runnumber}.vec
Omrezje.source*.interArrivalTime = 10

[Config conf2]
description = "Delno izgubna konfiguracija."
network = Omrezje
sim-time-limit = 3600 s
record-eventlog = true
**.scalar-recording = true
output-scalar-file = ${resultdir}/${configname}/${runnumber}.sca
**.vector-recording = true
output-vector-file = ${resultdir}/${configname}/${runnumber}.vec
Omrezje.source*.interArrivalTime = truncnormal(${i = 10..15 step 5}, ${i} * 0.5)
Omrezje.router*.processingTime = truncnormal(${p = 1..2 step 1}, ${p} * 0.5)

[Config conf3]
description = "Izgubna konfiguracija."
network = Omrezje
sim-time-limit = 1800 s
record-eventlog = true
**.scalar-recording = true
output-scalar-file = ${resultdir}/${configname}/${runnumber}.sca
**.vector-recording = true
output-vector-file = ${resultdir}/${configname}/${runnumber}.vec
Omrezje.source*.interArrivalTime = truncnormal(${i = 3..5 step 2}, ${i} * 0.5)
Omrezje.router*.processingTime = truncnormal(${p = 5..7 step 2}, ${p} * 0.5)
Omrezje.router*.queueCapacity = truncnormal(${q = 1..6 step 5}, 0)